Version 4
SHEET 1 880 680
WIRE 0 0 200 0
WIRE 200 96 280 96
WIRE 376 96 500 96
WIRE 500 96 620 96
FLAG 0 96 0
FLAG 168 160 0
FLAG 200 192 0
FLAG 500 192 0
FLAG 620 192 0
FLAG 0 396 0
FLAG 168 128 ctrl
FLAG 0 300 ctrl
SYMBOL voltage 0 0 R0
SYMATTR InstName V1
SYMATTR Value 5
SYMBOL ind 200 0 R0
SYMATTR InstName L1
SYMATTR Value 700u
SYMBOL sw 168 96 R0
SYMATTR InstName S1
SYMATTR Value SW
SYMBOL diode 280 96 R270
SYMATTR InstName D1
SYMATTR Value DMOD
SYMBOL cap 500 96 R0
SYMATTR InstName C1
SYMATTR Value 500u
SYMBOL res 620 96 R0
SYMATTR InstName R1
SYMATTR Value 28.8
SYMBOL voltage 0 300 R0
SYMATTR InstName V2
SYMATTR Value PULSE(0 10 0 10n 10n {Tsw*D} {Tsw})
TEXT 0 -120 Left 2 ;昇圧チョッパ(sec5.3, 例題5.2基準+corpus/prof_00_boost.ascと同一定数)
TEXT 0 -88 Left 2 ;Vin=5V D=0.583 f=20kHz L=700uH C=500uF R=28.8ohm(→Vout≈12V)
TEXT 0 480 Left 2 !.model SW SW(Ron=1m Roff=1G Vt=0.01)
TEXT 0 520 Left 2 !.model DMOD D(Is=1e-9 N=1.0 Rs=0.001)
TEXT 0 560 Left 2 !.param fsw=20k
TEXT 0 600 Left 2 !.param Tsw=1/fsw
TEXT 0 640 Left 2 !.param D=0.583
TEXT 0 680 Left 2 !.tran 2u 100m 95m
