Version 4
SHEET 1 880 680
WIRE 0 0 232 0
WIRE 232 96 400 96
WIRE 400 192 560 192
WIRE 560 192 700 192
FLAG 0 96 0
FLAG 200 64 0
FLAG 232 192 0
FLAG 560 288 0
FLAG 700 288 0
FLAG 0 396 0
FLAG 200 32 ctrl
FLAG 0 300 ctrl
SYMBOL voltage 0 0 R0
SYMATTR InstName V1
SYMATTR Value 10
SYMBOL sw 200 0 R0
SYMATTR InstName S1
SYMATTR Value SW
SYMBOL diode 232 192 R180
SYMATTR InstName D1
SYMATTR Value DMOD
SYMBOL ind 400 96 R0
SYMATTR InstName L1
SYMATTR Value 30m
SYMBOL cap 560 192 R0
SYMATTR InstName C1
SYMATTR Value 100u
SYMBOL res 700 192 R0
SYMATTR InstName R1
SYMATTR Value 10
SYMBOL voltage 0 300 R0
SYMATTR InstName V2
SYMATTR Value PULSE(0 10 0 10n 10n {Tsw*D} {Tsw})
TEXT 0 -120 Left 2 ;降圧チョッパ(sec5.2, 例題5.1/5.3/5.4+章末ex5.6と同一定数)
TEXT 0 -88 Left 2 ;Vin=10V D=0.5 f=1kHz L=30mH C=100uF R=10ohm
TEXT 0 480 Left 2 !.model SW SW(Ron=1m Roff=1G Vt=0.01)
TEXT 0 520 Left 2 !.model DMOD D(Is=1e-9 N=1.0 Rs=0.001)
TEXT 0 560 Left 2 !.param fsw=1k
TEXT 0 600 Left 2 !.param Tsw=1/fsw
TEXT 0 640 Left 2 !.param D=0.5
TEXT 0 680 Left 2 !.tran 20u 20m
