Version 4
SHEET 1 880 680
WIRE 0 0 232 0
WIRE 232 96 400 96
WIRE 400 192 460 192
WIRE 460 192 580 192
FLAG 0 96 0
FLAG 200 64 0
FLAG 232 192 0
FLAG 460 288 0
FLAG 580 288 0
FLAG 0 396 0
FLAG 200 32 ctrl
FLAG 0 300 ctrl
SYMBOL voltage 0 0 R0
SYMATTR InstName V1
SYMATTR Value 12
SYMBOL sw 200 0 R0
SYMATTR InstName S1
SYMATTR Value SW
SYMBOL ind 232 96 R0
SYMATTR InstName L1
SYMATTR Value 700u
SYMBOL diode 400 192 R180
SYMATTR InstName D1
SYMATTR Value DMOD
SYMBOL cap 460 192 R0
SYMATTR InstName C1
SYMATTR Value 500u
SYMBOL res 580 192 R0
SYMATTR InstName R1
SYMATTR Value 5
SYMBOL voltage 0 300 R0
SYMATTR InstName V2
SYMATTR Value PULSE(0 10 0 10n 10n {Tsw*D} {Tsw})
TEXT 0 -120 Left 2 ;昇降圧チョッパ(sec5.4, ex5.3(a)基準+corpus/prof_01_back_boost_back.ascと同一定数)
TEXT 0 -88 Left 2 ;Vin=12V D=0.2941 f=20kHz L=700uH C=500uF R=5ohm(→Vout≈-5V, 極性反転)
TEXT 0 480 Left 2 !.model SW SW(Ron=1m Roff=1G Vt=0.01)
TEXT 0 520 Left 2 !.model DMOD D(Is=1e-9 N=1.0 Rs=0.001)
TEXT 0 560 Left 2 !.param fsw=20k
TEXT 0 600 Left 2 !.param Tsw=1/fsw
TEXT 0 640 Left 2 !.param D=0.2941
TEXT 0 680 Left 2 !.tran 2u 100m 95m
