Version 4
SHEET 1 320 320
WIRE 64 16 192 16
SYMBOL voltage 64 16 R0
SYMATTR InstName V1
SYMATTR Value 0
SYMBOL res 192 16 R0
SYMATTR InstName Rc
SYMATTR Value 1
SYMBOL res 192 112 R0
SYMATTR InstName Rb
SYMATTR Value 100
FLAG 64 112 0
FLAG 192 208 0
TEXT 16 240 Left 2 !.dc V1 -1 1 0.01
TEXT 16 -56 Left 2 ;金属-半導体オーミック接合 確認回路：Rc=接触抵抗(模式値)，Rb=半導体バルク抵抗(模式値) (chapter01 fig, sec1.7)
