Version 4
SHEET 1 880 680
WIRE 160 144 320 144
WIRE 160 240 160 288
WIRE 320 336 320 384
FLAG 160 288 0
FLAG 320 384 0
SYMBOL voltage 160 144 R0
SYMATTR InstName V1
SYMATTR Value 0
SYMBOL res 320 144 R0
SYMATTR InstName Rc
SYMATTR Value 1
SYMBOL res 320 240 R0
SYMATTR InstName Rb
SYMATTR Value 100
TEXT 160 48 Left 2 ;金属-半導体オーミック接合 確認回路：Rc=接触抵抗(模式値)，Rb=半導体バルク抵抗(模式値) (chapter01 fig, sec1.7)
TEXT 160 480 Left 2 !.dc V1 -1 1 0.01
