* netlist auto-generated by asc_to_net.py from ohmic_contact_iv.asc
V1 N001 0 0
Rc N001 N002 1
Rb N002 0 100
.dc V1 -1 1 0.01
.end
