Version 4
SHEET 1 880 680
WIRE 160 144 320 144
WIRE 160 240 160 288
WIRE 320 336 320 384
FLAG 160 288 0
FLAG 320 384 0
SYMBOL voltage 160 144 R0
SYMATTR InstName V1
SYMATTR Value 0
SYMBOL res 320 144 R0
SYMATTR InstName R1
SYMATTR Value 1k
SYMBOL diode 320 240 R0
SYMATTR InstName D1
SYMATTR Value DMOD
TEXT 160 48 Left 2 ;pn接合ダイオードI-V特性試験回路 (chapter01 fig, sec1.6)
TEXT 160 456 Left 2 !.model DMOD D(Is=1e-14 N=1.0 Rs=0.1)
TEXT 160 480 Left 2 !.dc V1 -5 1 0.01
