Version 4
SHEET 1 320 320
WIRE 64 16 192 16
SYMBOL voltage 64 16 R0
SYMATTR InstName V1
SYMATTR Value 0
SYMBOL res 192 16 R0
SYMATTR InstName R1
SYMATTR Value 1k
SYMBOL diode 192 112 R0
SYMATTR InstName D1
SYMATTR Value DSCHOTTKY
FLAG 64 112 0
FLAG 192 208 0
TEXT 16 240 Left 2 !.model DSCHOTTKY D(Is=1e-9 N=1.05 Rs=0.05)
TEXT 16 264 Left 2 !.dc V1 -5 1 0.01
TEXT 16 -56 Left 2 ;ショットキー接合ダイオードI-V特性試験回路 (chapter01 fig, sec1.7)
