Version 4
SHEET 1 480 420
WIRE 64 16 192 16
WIRE 192 112 288 112
WIRE 144 160 256 160
SYMBOL voltage 64 16 R0
SYMATTR InstName V1
SYMATTR Value 12
SYMBOL res 192 16 R0
SYMATTR InstName RC
SYMATTR Value 0.02
SYMBOL current 144 256 R180
SYMATTR InstName I1
SYMATTR Value 2
SYMBOL npn 256 112 R0
SYMATTR InstName Q1
SYMATTR Value QNPN
FLAG 64 112 0
FLAG 144 256 0
FLAG 288 208 0
FLAG 288 112 ncoll
FLAG 256 160 nbase
TEXT 16 -56 Left 2 ;BJTベース駆動回路 (chapter02, sec2.4, 例題2.2)
TEXT 16 400 Left 2 !.model QNPN NPN(BF=50)
TEXT 16 424 Left 2 !.control
TEXT 16 448 Left 2 !op
TEXT 16 472 Left 2 !print v(ncoll) v(nbase) @q1[ic] @q1[ib] @q1[ie] @q1[vbe]
TEXT 16 496 Left 2 !write chapter02/bjt_base_drive.raw
TEXT 16 520 Left 2 !.endc
