Version 4
SHEET 1 560 520
WIRE 192 32 288 32
WIRE 144 80 256 80
SYMBOL mosfet_n 256 32 R0
SYMATTR InstName M1
SYMATTR Value MYNMOS
SYMBOL diode 288 128 R0
SYMATTR InstName D1
SYMATTR Value DMOD
SYMBOL voltage 144 80 R0
SYMATTR InstName VGG
SYMATTR Value 15
SYMBOL current 192 128 R180
SYMATTR InstName Isweep
SYMATTR Value 0.1
FLAG 144 176 0
FLAG 192 128 0
FLAG 288 224 0
FLAG 288 32 vcol
FLAG 288 128 vmid
TEXT 16 8 Left 2 ;IGBT簡易等価回路 (chapter02, sec2.6, 例題2.3の定性的検証用)
TEXT 16 32 Left 2 ;【注記】これは実IGBTデバイスのSPICEマクロモデルではない。教育目的の簡易等価回路であり、
TEXT 16 56 Left 2 ;sec2.6本文の説明「縦型MOSFETの裏面n+層をp形に置き換えただけ」に基づき、
TEXT 16 80 Left 2 ;MOSFETチャネル(M1, ゲートは常時オン=VGG=15V>>Vth=3Vで固定)と
TEXT 16 104 Left 2 ;追加のpn接合1個分の電圧降下(D1, Is/N調整でVf~0.5-0.6V)を直列にしただけの
TEXT 16 128 Left 2 ;非公式マクロモデルである(IGBT実デバイスのSPICEモデルではない)。
TEXT 16 152 Left 2 ;vcol=M1ドレイン(等価コレクタ), vmid=M1ソース/D1アノード(M1とD1の間), emitter=0V
TEXT 16 176 Left 2 ;電流掃引0.1-60Aでvcolを観測し、回路2(mosfet_output_char)のRon*I型上昇と比較する
TEXT 16 320 Left 2 !.model MYNMOS NMOS(LEVEL=1 VTO=3 KP=2)
TEXT 16 344 Left 2 !.model DMOD D(Is=1e-9 N=1.0 Rs=0.001)
TEXT 16 368 Left 2 !.control
TEXT 16 392 Left 2 !dc Isweep 0.1 60 0.1
TEXT 16 416 Left 2 !print v(vcol) v(vmid)
TEXT 16 440 Left 2 !write chapter02/igbt_equivalent_von.raw
TEXT 16 464 Left 2 !.endc
