Version 4
SHEET 1 560 520
WIRE 192 32 288 32
WIRE 144 80 256 80
SYMBOL nmos 256 32 R0
SYMATTR InstName M1
SYMATTR Value MYNMOS
SYMBOL diode 288 128 R0
SYMATTR InstName D1
SYMATTR Value DMOD
SYMBOL voltage 144 80 R0
SYMATTR InstName VGG
SYMATTR Value 15
SYMBOL current 192 128 R180
SYMATTR InstName Isweep
SYMATTR Value 0.1
FLAG 144 176 0
FLAG 192 128 0
FLAG 288 224 0
FLAG 288 32 vcol
FLAG 288 128 vmid
TEXT 16 -56 Left 2 ;IGBT簡易等価回路(非公式マクロモデル、詳細はVERIFICATION_NOTES参照) (chapter02, sec2.6)
TEXT 16 320 Left 2 !.model MYNMOS NMOS(LEVEL=1 VTO=3 KP=2)
TEXT 16 344 Left 2 !.model DMOD D(Is=1e-9 N=1.0 Rs=0.001)
TEXT 16 368 Left 2 !.control
TEXT 16 392 Left 2 !dc Isweep 0.1 60 0.1
TEXT 16 416 Left 2 !print v(vcol) v(vmid)
TEXT 16 440 Left 2 !write chapter02/igbt_equivalent_von.raw
TEXT 16 464 Left 2 !.endc
