Version 4
SHEET 1 560 420
WIRE 288 64 352 64
WIRE 144 112 256 112
SYMBOL mosfet_n 256 64 R0
SYMATTR InstName M1
SYMATTR Value MYNMOS
SYMBOL voltage 352 64 R0
SYMATTR InstName VDS
SYMATTR Value 0
SYMBOL voltage 144 112 R0
SYMATTR InstName VGS
SYMATTR Value 2
FLAG 288 160 0
FLAG 352 160 0
FLAG 144 208 0
FLAG 288 64 vd
FLAG 256 112 vg
TEXT 16 8 Left 2 ;NMOS出力特性試験回路 (chapter02, sec2.5, fig2.5の概念・def2.2 Vth=2-4V)
TEXT 16 32 Left 2 ;M1: Vth=3V(教科書の2-4V範囲内), ソース接地(ボディもソースと同電位)
TEXT 16 56 Left 2 ;VGS=2V(Vthよりわずかに下)/3V/4V/5Vの4本の出力特性を掃引で比較
TEXT 16 80 Left 2 ;期待: VGS=2Vはほぼ電流ゼロ、VGS=4V,5Vは原点から直線的に立ち上がる(0.7V下駄なし)
TEXT 16 280 Left 2 !.model MYNMOS NMOS(LEVEL=1 VTO=3 KP=2)
TEXT 16 304 Left 2 !.control
TEXT 16 328 Left 2 !dc VDS 0 10 0.2 VGS 2 5 1
TEXT 16 352 Left 2 !print v(vd) v(vg) i(vds)
TEXT 16 376 Left 2 !write chapter02/mosfet_output_char.raw
TEXT 16 400 Left 2 !.endc
