Version 4
SHEET 1 560 420
WIRE 288 64 352 64
WIRE 144 112 256 112
SYMBOL nmos 256 64 R0
SYMATTR InstName M1
SYMATTR Value MYNMOS
SYMBOL voltage 352 64 R0
SYMATTR InstName VDS
SYMATTR Value 0
SYMBOL voltage 144 112 R0
SYMATTR InstName VGS
SYMATTR Value 2
FLAG 288 160 0
FLAG 352 160 0
FLAG 144 208 0
FLAG 288 64 vd
FLAG 256 112 vg
TEXT 16 -56 Left 2 ;NMOS出力特性試験回路 (chapter02, sec2.5, def2.2)
TEXT 16 280 Left 2 !.model MYNMOS NMOS(LEVEL=1 VTO=3 KP=2)
TEXT 16 304 Left 2 !.control
TEXT 16 328 Left 2 !dc VDS 0 10 0.2 VGS 2 5 1
TEXT 16 352 Left 2 !print v(vd) v(vg) i(vds)
TEXT 16 376 Left 2 !write chapter02/mosfet_output_char.raw
TEXT 16 400 Left 2 !.endc
