Version 4
SHEET 1 560 560
WIRE 64 16 160 16
WIRE 160 112 288 112
WIRE 288 16 320 16
WIRE 320 16 320 208
WIRE 320 208 256 208
WIRE 288 160 352 160
WIRE 352 160 352 64
WIRE 352 64 256 64
WIRE 144 208 256 208
SYMBOL voltage 64 16 R0
SYMATTR InstName VAA
SYMATTR Value 12
SYMBOL res 160 16 R0
SYMATTR InstName RL
SYMATTR Value 100
SYMBOL pnp 256 16 R0
SYMATTR InstName Q2
SYMATTR Value QPNP2
SYMBOL npn 256 160 R0
SYMATTR InstName Q1
SYMATTR Value QNPN2
SYMBOL current 144 304 R180
SYMATTR InstName Igate
SYMATTR Value PULSE(0 10m 1m 1u 1u 1m 100m)
SYMBOL res 256 208 R0
SYMATTR InstName Rshunt
SYMATTR Value 1k
FLAG 64 112 0
FLAG 288 256 0
FLAG 144 304 0
FLAG 256 304 0
FLAG 288 112 anode
FLAG 256 208 gbase
TEXT 16 -56 Left 2 ;サイリスタ2トランジスタ等価回路 (chapter02, sec2.7)
TEXT 16 440 Left 2 !.model QNPN2 NPN(BF=50)
TEXT 16 464 Left 2 !.model QPNP2 PNP(BF=50)
TEXT 16 488 Left 2 !.control
TEXT 16 512 Left 2 !tran 10u 10m
TEXT 16 536 Left 2 !print v(anode) v(gbase) i(vaa)
TEXT 16 560 Left 2 !write chapter02/thyristor_two_transistor.raw
TEXT 16 584 Left 2 !.endc
