Version 4
SHEET 1 560 560
WIRE 64 16 160 16
WIRE 160 112 288 112
WIRE 288 16 320 16
WIRE 320 16 320 208
WIRE 320 208 256 208
WIRE 288 160 352 160
WIRE 352 160 352 64
WIRE 352 64 256 64
WIRE 144 208 256 208
SYMBOL voltage 64 16 R0
SYMATTR InstName VAA
SYMATTR Value 12
SYMBOL res 160 16 R0
SYMATTR InstName RL
SYMATTR Value 100
SYMBOL pnp 256 16 R0
SYMATTR InstName Q2
SYMATTR Value QPNP2
SYMBOL npn 256 160 R0
SYMATTR InstName Q1
SYMATTR Value QNPN2
SYMBOL current 144 304 R180
SYMATTR InstName Igate
SYMATTR Value PULSE(0 10m 1m 1u 1u 1m 100m)
SYMBOL res 256 208 R0
SYMATTR InstName Rshunt
SYMATTR Value 1k
FLAG 64 112 0
FLAG 288 256 0
FLAG 144 304 0
FLAG 256 304 0
FLAG 288 112 anode
FLAG 256 208 gbase
TEXT 16 8 Left 2 ;サイリスタ2トランジスタ等価回路 (chapter02, sec2.7, キャリアの動き～ラッチ動作)
TEXT 16 32 Left 2 ;Q2=PNP(アノード側), Q1=NPN(カソード側), 中央2層共有をクロスカップリングで表現
TEXT 16 56 Left 2 ;Q2エミッタ=アノード, Q2コレクタ->Q1ベース, Q1コレクタ->Q2ベース, Q1エミッタ=カソード(0V)
TEXT 16 80 Left 2 ;ゲート電流はQ1(NPN)ベースへPULSE(0 10mA 1m 1u 1u 1m 100m)で注入(1ms後に1ms幅で立つ)
TEXT 16 104 Left 2 ;主回路: VAA=12V - RL=100ohm - アノード, カソード接地
TEXT 16 128 Left 2 ;着目点: ゲートパルス消滅後(t>2ms)もアノード電流が流れ続ける=ラッチ動作(教科書sec2.7の核心)
TEXT 16 152 Left 2 ;Rshunt=1k(Q1ベース-カソード間)は実SCRのカソードショント抵抗の模擬。理想Ebers-Mollモデルの
TEXT 16 176 Left 2 ;正帰還ループはRshuntが無いと遮断状態が数値的に不安定になり、ゲート電流ゼロでも誤ってオン点に
TEXT 16 200 Left 2 ;収束してしまうため追加した(教科書本文には無いモデル化上の工夫、回路動作の主張には影響しない)
TEXT 16 360 Left 2 !.model QNPN2 NPN(BF=50)
TEXT 16 384 Left 2 !.model QPNP2 PNP(BF=50)
TEXT 16 408 Left 2 !.control
TEXT 16 432 Left 2 !tran 10u 10m
TEXT 16 456 Left 2 !print v(anode) v(gbase) i(vaa)
TEXT 16 480 Left 2 !write chapter02/thyristor_two_transistor.raw
TEXT 16 504 Left 2 !.endc
