Version 4
SHEET 1 1100 1400
SYMBOL voltage 64 16 R0
SYMATTR InstName Vin
SYMATTR Value SIN(0 141 50)
SYMBOL res 224 16 R0
SYMATTR InstName Rsrc
SYMATTR Value 0.5
SYMBOL res 384 16 R0
SYMATTR InstName Rload
SYMATTR Value 100
SYMBOL pnp 560 250 R0
SYMATTR InstName Q2p
SYMATTR Value QPNP2
SYMBOL npn 560 394 R0
SYMATTR InstName Q1p
SYMATTR Value QNPN2
SYMBOL res 760 442 R0
SYMATTR InstName Rshuntp
SYMATTR Value 1k
SYMBOL current 176 538 R180
SYMATTR InstName Igatep
SYMATTR Value PULSE(0 10m {adelp} 1u 1u 1m 20m)
SYMBOL pnp 560 650 R0
SYMATTR InstName Q2n
SYMATTR Value QPNP2
SYMBOL npn 560 794 R0
SYMATTR InstName Q1n
SYMATTR Value QNPN2
SYMBOL res 760 842 R0
SYMATTR InstName Rshuntn
SYMATTR Value 1k
SYMBOL current 176 938 R180
SYMATTR InstName Igaten
SYMATTR Value PULSE(0 10m {adeln} 1u 1u 1m 20m)
FLAG 64 16 vin_p
FLAG 64 112 0
FLAG 224 16 vin_p
FLAG 224 112 vline
FLAG 384 16 vline
FLAG 384 112 mid
FLAG 592 346 mid
FLAG 592 250 gbasep
FLAG 560 298 bbasep
FLAG 592 394 bbasep
FLAG 560 442 gbasep
FLAG 592 490 0
FLAG 760 442 gbasep
FLAG 760 538 0
FLAG 176 538 0
FLAG 176 442 gbasep
FLAG 592 746 0
FLAG 592 650 gbasen
FLAG 560 698 bbasen
FLAG 592 794 bbasen
FLAG 560 842 gbasen
FLAG 592 890 mid
FLAG 760 842 gbasen
FLAG 760 938 mid
FLAG 176 938 mid
FLAG 176 842 gbasen
TEXT 16 -90 Left 2 ;交流位相調整回路(sec10.3, ex10.5(a)(b))。逆並列サイリスタ(2章の2トランジスタ等価回路を2組使用)で
TEXT 16 -66 Left 2 ;単相交流(振幅141V,50Hz)を位相制御し、抵抗負荷100Ωへ与える。T_pos(Q2p/Q1p)は正の半周期、
TEXT 16 -42 Left 2 ;T_neg(Q2n/Q1n)は負の半周期を受け持つ。両者はnode "mid"(負荷側)とnode "0"(電源側)を共有する。
TEXT 16 -18 Left 2 ;点弧角alphaはGateパルスの遅延{adelp}/{adeln}(=alpha/360*20ms、negは+10ms)で与える。5ケースはalterparam+reset+tranで実行。
TEXT 16 1000 Left 2 !.param adelp=1.6667m
TEXT 16 1024 Left 2 !.param adeln=11.6667m
TEXT 16 1048 Left 2 !.model QNPN2 NPN(BF=50)
TEXT 16 1072 Left 2 !.model QPNP2 PNP(BF=50)
TEXT 16 1096 Left 2 !.control
TEXT 16 1120 Left 2 !tran 10u 100m
TEXT 16 1144 Left 2 !meas tran irms_a30 RMS i(Vin) FROM=60m TO=99.9m
TEXT 16 1168 Left 2 !alterparam adelp = 3.3333m
TEXT 16 1192 Left 2 !alterparam adeln = 13.3333m
TEXT 16 1216 Left 2 !reset
TEXT 16 1240 Left 2 !tran 10u 100m
TEXT 16 1264 Left 2 !meas tran irms_a60 RMS i(Vin) FROM=60m TO=99.9m
TEXT 16 1288 Left 2 !alterparam adelp = 5.0m
TEXT 16 1312 Left 2 !alterparam adeln = 15.0m
TEXT 16 1336 Left 2 !reset
TEXT 16 1360 Left 2 !tran 10u 100m
TEXT 416 1000 Left 2 !meas tran irms_a90 RMS i(Vin) FROM=60m TO=99.9m
TEXT 416 1024 Left 2 !alterparam adelp = 6.6667m
TEXT 416 1048 Left 2 !alterparam adeln = 16.6667m
TEXT 416 1072 Left 2 !reset
TEXT 416 1096 Left 2 !tran 10u 100m
TEXT 416 1120 Left 2 !meas tran irms_a120 RMS i(Vin) FROM=60m TO=99.9m
TEXT 416 1144 Left 2 !alterparam adelp = 8.3333m
TEXT 416 1168 Left 2 !alterparam adeln = 18.3333m
TEXT 416 1192 Left 2 !reset
TEXT 416 1216 Left 2 !tran 10u 100m
TEXT 416 1240 Left 2 !meas tran irms_a150 RMS i(Vin) FROM=60m TO=99.9m
TEXT 416 1264 Left 2 !write chapter10/phase_control_r_load.raw all
TEXT 416 1288 Left 2 !.endc
