Version 4
SHEET 1 1100 1400
SYMBOL voltage 64 16 R0
SYMATTR InstName Vin
SYMATTR Value SIN(0 141 50)
SYMBOL res 224 16 R0
SYMATTR InstName Rsrc
SYMATTR Value 0.5
SYMBOL res 384 16 R0
SYMATTR InstName Rload
SYMATTR Value 100
SYMBOL ind 544 16 R0
SYMATTR InstName Lload
SYMATTR Value 300m
SYMBOL pnp 560 250 R0
SYMATTR InstName Q2p
SYMATTR Value QPNP2
SYMBOL npn 560 394 R0
SYMATTR InstName Q1p
SYMATTR Value QNPN2
SYMBOL res 760 442 R0
SYMATTR InstName Rshuntp
SYMATTR Value 1k
SYMBOL current 176 538 R180
SYMATTR InstName Igatep
SYMATTR Value PULSE(0 10m 3.3333m 1u 1u 1m 20m)
SYMBOL pnp 560 650 R0
SYMATTR InstName Q2n
SYMATTR Value QPNP2
SYMBOL npn 560 794 R0
SYMATTR InstName Q1n
SYMATTR Value QNPN2
SYMBOL res 760 842 R0
SYMATTR InstName Rshuntn
SYMATTR Value 1k
SYMBOL current 176 938 R180
SYMATTR InstName Igaten
SYMATTR Value PULSE(0 10m 13.3333m 1u 1u 1m 20m)
FLAG 64 16 vin_p
FLAG 64 112 0
FLAG 224 16 vin_p
FLAG 224 112 vline
FLAG 384 16 vline
FLAG 384 112 rl_mid
FLAG 544 16 rl_mid
FLAG 544 112 mid
FLAG 592 346 mid
FLAG 592 250 gbasep
FLAG 560 298 bbasep
FLAG 592 394 bbasep
FLAG 560 442 gbasep
FLAG 592 490 0
FLAG 760 442 gbasep
FLAG 760 538 0
FLAG 176 538 0
FLAG 176 442 gbasep
FLAG 592 746 0
FLAG 592 650 gbasen
FLAG 560 698 bbasen
FLAG 592 794 bbasen
FLAG 560 842 gbasen
FLAG 592 890 mid
FLAG 760 842 gbasen
FLAG 760 938 mid
FLAG 176 938 mid
FLAG 176 842 gbasen
TEXT 16 -90 Left 2 ;交流位相調整回路・RL負荷版(sec10.3, ex10.5(c))。R負荷版(phase_control_r_load.asc)のRload=100Ωに
TEXT 16 -66 Left 2 ;直列でLload=300mHを追加した点のみが異なる(alpha=60degで固定、R版の同alphaケースと比較する)。
TEXT 16 -42 Left 2 ;負荷角phi=atan(omega*L/R)=atan(2*pi*50*0.3/100)=約43.3度。電流がv(vin)の零点より遅れて
TEXT 16 -18 Left 2 ;消弧し、抵抗負荷のときより導通区間が広がる様子をraw波形から確認する(VERIFICATION_NOTES参照)。
TEXT 16 1000 Left 2 !.model QNPN2 NPN(BF=50)
TEXT 16 1024 Left 2 !.model QPNP2 PNP(BF=50)
TEXT 16 1048 Left 2 !.control
TEXT 16 1072 Left 2 !tran 5u 100m
TEXT 16 1096 Left 2 !write chapter10/phase_control_rl_load.raw all
TEXT 16 1120 Left 2 !.endc
