Version 4
SHEET 1 640 560
WIRE 64 96 256 96
WIRE 256 96 352 96
WIRE 256 192 320 192
WIRE 320 192 352 192
WIRE 144 240 288 240
WIRE 352 192 432 192
SYMBOL voltage 64 96 R0
SYMATTR InstName V1
SYMATTR Value 100
SYMBOL ind 256 96 R0
SYMATTR InstName L1
SYMATTR Value 50u
SYMBOL diode 352 192 R180
SYMATTR InstName D1
SYMATTR Value DFW
SYMBOL nmos 288 192 R0
SYMATTR InstName M1
SYMATTR Value SWMOS
SYMBOL voltage 144 240 R0
SYMATTR InstName VG
SYMATTR Value PWL(0 0 100n 0 150n 15 5150n 15 5200n 0 6200n 0 6250n 15 8250n 15 8300n 0 8500n 0)
SYMBOL cap 432 192 R0
SYMATTR InstName Coss
SYMATTR Value 470p
FLAG 64 192 0
FLAG 320 288 0
FLAG 144 336 0
FLAG 432 288 0
FLAG 64 96 vtop
FLAG 320 192 sw
FLAG 288 240 gate
TEXT 16 -56 Left 2 ;クランプ誘導性ダブルパルス試験回路 (chapter03, sec3.3, 例題3.2)
TEXT 16 400 Left 2 !.model SWMOS NMOS(LEVEL=1 VTO=3 KP=2)
TEXT 16 424 Left 2 !.model DFW D(Is=1e-9 N=1.0 Rs=0.001)
TEXT 16 448 Left 2 !.control
TEXT 16 460 Left 2 !save all @d1[id]
TEXT 16 472 Left 2 !tran 0.5n 8.5u 0 0.5n
TEXT 16 496 Left 2 !wrdata chapter03/dpt_switching_loss.txt v(sw) v(vtop) v(gate) i(l1) @d1[id]
TEXT 16 520 Left 2 !write chapter03/switching_loss_double_pulse.raw
TEXT 16 544 Left 2 !.endc
