Version 4
SHEET 1 640 560
WIRE 64 96 256 96
WIRE 256 96 352 96
WIRE 256 192 320 192
WIRE 320 192 352 192
WIRE 144 240 288 240
WIRE 352 192 432 192
SYMBOL voltage 64 96 R0
SYMATTR InstName V1
SYMATTR Value 100
SYMBOL inductor 256 96 R0
SYMATTR InstName L1
SYMATTR Value 50u
SYMBOL diode 352 192 R180
SYMATTR InstName D1
SYMATTR Value DFW
SYMBOL mosfet_n 288 192 R0
SYMATTR InstName M1
SYMATTR Value SWMOS
SYMBOL voltage 144 240 R0
SYMATTR InstName VG
SYMATTR Value PWL(0 0 100n 0 150n 15 5150n 15 5200n 0 6200n 0 6250n 15 8250n 15 8300n 0 8500n 0)
SYMBOL cap 432 192 R0
SYMATTR InstName Coss
SYMATTR Value 470p
FLAG 64 192 0
FLAG 320 288 0
FLAG 144 336 0
FLAG 432 288 0
FLAG 64 96 vtop
FLAG 320 192 sw
FLAG 288 240 gate
TEXT 16 8 Left 2 ;クランプ誘導性ダブルパルス試験回路 (chapter03, sec3.3, 例題3.2のE_on/E_off検証用)
TEXT 16 32 Left 2 ;V1=100V(vtop)-L1=50uH-M1(スイッチ,ドレイン=sw)の直列。D1はL1に並列の還流ダイオード(anode=sw,cathode=vtop)
TEXT 16 56 Left 2 ;M1: NMOS(LEVEL=1 VTO=3V KP=2、chapter02のmosfet_output_charと同じモデル定数を流用、Ron実測は本文の目標50mΩに近い値)
TEXT 16 80 Left 2 ;VGはゲートPWL電圧源(0V-15V、tr=tf=50ns)でダブルパルスを生成:
TEXT 16 104 Left 2 ;1発目オン5usでL1電流を約10Aまで直線的に立ち上げ、1us休止でターンオフ過渡(電流約10Aのままv(sw)がvtop近くまで上昇しD1が還流)を観測、
TEXT 16 128 Left 2 ;2発目オンでターンオン過渡(v(sw)がvtopから0近くへ下降しつつ電流がD1からM1へ戻る)を同じ電流レベルで再観測する
TEXT 16 152 Left 2 ;スイッチ電流はKCL i_sw=i(L1)-i(D1)として後処理(Python)で導出する。LEVEL1モデルはゲート容量を持たないため
TEXT 16 176 Left 2 ;Rg/Cgsによる遅延回路は追加していない(VGのtr/tf=50ns自体が有限勾配ネットワークの役割を果たす、VERIFICATION_NOTES参照)
TEXT 16 224 Left 2 ;Coss=100pF(sw-GND間)はMOSFET出力容量+配線浮遊容量を模した現実的な寄生値。理想ノード(容量0)では
TEXT 16 248 Left 2 ;dV/dtが数値的に無限大となりngspiceのニュートン法が収束せず異常値(数値創作ではなく収束破綻)を出したため追加した(VERIFICATION_NOTES参照)
TEXT 16 200 Left 2 ;観測: v(sw)*[i(L1)-i(D1)]の時間積分からE_on,E_offを実測し、式3.8/3.9(E=0.5*V*I*t)・式3.10(P_sw)と比較する
TEXT 16 400 Left 2 !.model SWMOS NMOS(LEVEL=1 VTO=3 KP=2)
TEXT 16 424 Left 2 !.model DFW D(Is=1e-9 N=1.0 Rs=0.001)
TEXT 16 448 Left 2 !.control
TEXT 16 460 Left 2 !save all @d1[id]
TEXT 16 472 Left 2 !tran 0.5n 8.5u 0 0.5n
TEXT 16 496 Left 2 !wrdata chapter03/dpt_switching_loss.txt v(sw) v(vtop) v(gate) i(l1) @d1[id]
TEXT 16 520 Left 2 !write chapter03/switching_loss_double_pulse.raw
TEXT 16 544 Left 2 !.endc
