Version 4
SHEET 1 880 680
WIRE 0 0 384 0
WIRE 384 0 384 48
WIRE 192 192 192 96
WIRE 192 96 352 96
WIRE 128 160 0 160
WIRE 0 160 0 192
WIRE 128 224 128 240
WIRE 128 240 384 240
WIRE 384 144 480 144
SYMBOL voltage 0 0 R0
SYMATTR InstName V4
SYMATTR Value 10
SYMBOL npn 352 48 R0
SYMATTR InstName Q1
SYMATTR Value QNPN3
SYMBOL res 384 144 R0
SYMATTR InstName R3
SYMATTR Value 6k
SYMBOL res 384 240 R0
SYMATTR InstName R4
SYMATTR Value 12k
SYMBOL res 480 144 R0
SYMATTR InstName R2
SYMATTR Value 10
SYMBOL voltage 0 192 R0
SYMATTR InstName V3
SYMATTR Value PULSE(0 5 0.2m 10n 10n 10m)
SYMBOL opamp 128 144 R0
SYMATTR InstName E1
SYMATTR Value 1e5
FLAG 0 96 0
FLAG 384 336 0
FLAG 0 288 0
FLAG 480 240 0
FLAG 384 144 vout
FLAG 384 240 vfb
FLAG 0 192 vref
TEXT 0 -120 Left 2 ;オペアンプ負帰還リニアレギュレータ(sec7.3/7.4, ex7.5(b)+LTspice/Lecture7/seriese_regurator_opampと同一定数)
TEXT 0 -88 Left 2 ;Vin=10V Vref=PULSE(0->5V) R3=6k(上) R4=12k(下) Q1=2N2222相当 E1=理想オペアンプ(gain=1e5) R2=10/50/100ohm(負荷スイープ、ex7.5(a)と同じ変動幅)
TEXT 0 -56 Left 2 ;理論値 Vout=Vref*(1+R3/R4)=5*(1+6k/12k)=7.5V (式7.9)
TEXT 0 400 Left 2 !.model QNPN3 NPN(BF=100)
TEXT 0 440 Left 2 !.control
TEXT 0 464 Left 2 !alter R2 = 10
TEXT 0 488 Left 2 !tran 2u 5m
TEXT 0 512 Left 2 !alter R2 = 50
TEXT 0 536 Left 2 !tran 2u 5m
TEXT 0 560 Left 2 !alter R2 = 100
TEXT 0 584 Left 2 !tran 2u 5m
TEXT 0 608 Left 2 !write chapter07/linear_reg_opamp.raw all
TEXT 0 632 Left 2 !.endc
