Version 4
SHEET 1 880 680
WIRE 0 0 192 0
WIRE 192 0 384 0
WIRE 384 0 384 48
WIRE 192 96 352 96
SYMBOL voltage 0 0 R0
SYMATTR InstName V1
SYMATTR Value 10
SYMBOL res 192 0 R0
SYMATTR InstName R2
SYMATTR Value 400
SYMBOL zener 192 192 R180
SYMATTR InstName D1
SYMATTR Value DZ4V7
SYMBOL npn 352 48 R0
SYMATTR InstName Q1
SYMATTR Value QNPN3
SYMBOL res 384 144 R0
SYMATTR InstName R1
SYMATTR Value 10
FLAG 0 96 0
FLAG 192 192 0
FLAG 384 240 0
FLAG 192 96 vref
FLAG 384 144 vout
TEXT 0 -120 Left 2 ;ツェナー基準リニアレギュレータ(sec7.4, ex7.5(a)+LTspice/Lecture7/seriese_regurator_zener_diodeと同一定数)
TEXT 0 -88 Left 2 ;Vin=10V Vz=4.7V(1N750相当) R2=400ohm Q1=2N2222相当 R1=10/50/100ohm(負荷スイープ、.control alterで実施)
TEXT 0 480 Left 2 !.model QNPN3 NPN(BF=100)
TEXT 0 520 Left 2 !.model DZ4V7 D(Is=1e-9 N=1.0 Rs=1 BV=4.7 IBV=0.005)
TEXT 0 560 Left 2 !.control
TEXT 0 584 Left 2 !alter R1 = 10
TEXT 0 608 Left 2 !tran 10u 1m
TEXT 0 632 Left 2 !alter R1 = 50
TEXT 0 656 Left 2 !tran 10u 1m
TEXT 0 680 Left 2 !alter R1 = 100
TEXT 0 704 Left 2 !tran 10u 1m
TEXT 0 728 Left 2 !write chapter07/linear_reg_zener.raw all
TEXT 0 752 Left 2 !.endc
