Version 4
SHEET 1 880 680
WIRE 160 144 320 144
WIRE 320 240 480 240
WIRE 160 240 160 288
WIRE 320 336 320 384
WIRE 480 336 480 384
FLAG 160 288 0
FLAG 320 384 0
FLAG 480 384 0
SYMBOL voltage 160 144 R0
SYMATTR InstName V1
SYMATTR Value PULSE(0 12 0 1n 1n 5u 10u)
SYMBOL ind 320 144 R0
SYMATTR InstName L1
SYMATTR Value 100u
SYMBOL cap 320 240 R0
SYMATTR InstName C1
SYMATTR Value 10u
SYMBOL res 480 240 R0
SYMATTR InstName R1
SYMATTR Value 6
TEXT 160 48 Left 2 ;LCフィルタ+方形波電圧源(ex4.5, D=0.5, f=100kHz) V1-L1-C1//R1
TEXT 160 456 Left 2 !.tran 0.01u 300u 250u 0.01u
