Version 4
SHEET 1 1300 800
WIRE 0 100 332 100
WIRE 332 100 732 100
WIRE 0 196 0 396
WIRE 0 396 332 396
WIRE 332 396 732 396
WIRE 332 196 332 300
WIRE 732 196 732 300
WIRE 332 196 380 196
WIRE 380 196 380 550
WIRE 380 550 450 550
WIRE 642 550 680 550
WIRE 680 550 680 196
WIRE 680 196 732 196
FLAG 0 396 0
FLAG 380 196 a
FLAG 680 196 b
FLAG 300 132 ctrlA
FLAG 300 164 0
FLAG 300 332 ctrlAn
FLAG 300 364 0
FLAG 700 132 ctrlB
FLAG 700 164 0
FLAG 700 332 ctrlBn
FLAG 700 364 0
FLAG 900 50 carr
FLAG 900 146 0
FLAG 900 250 ref
FLAG 900 346 0
FLAG 900 450 refn
FLAG 900 546 0
FLAG 900 650 ctrlA
FLAG 900 746 0
FLAG 1100 50 ctrlAn
FLAG 1100 146 0
FLAG 1100 250 ctrlB
FLAG 1100 346 0
FLAG 1100 450 ctrlBn
FLAG 1100 546 0
SYMBOL voltage 0 100 R0
SYMATTR InstName V1
SYMATTR Value 100
SYMBOL sw 300 100 R0
SYMATTR InstName S1
SYMATTR Value SW
SYMBOL sw 300 300 R0
SYMATTR InstName S2
SYMATTR Value SW
SYMBOL sw 700 100 R0
SYMATTR InstName S3
SYMATTR Value SW
SYMBOL sw 700 300 R0
SYMATTR InstName S4
SYMATTR Value SW
SYMBOL res 450 550 R270
SYMATTR InstName R1
SYMATTR Value 10
SYMBOL ind 546 550 R270
SYMATTR InstName L1
SYMATTR Value 10m
SYMBOL voltage 900 50 R0
SYMATTR InstName Bcarr
SYMATTR Value V=(2/pi*asin(sin(2*pi*fc*time)))
SYMBOL voltage 900 250 R0
SYMATTR InstName Bref
SYMATTR Value V=(m*sin(2*pi*fm*time))
SYMBOL voltage 900 450 R0
SYMATTR InstName Brefn
SYMATTR Value V=(-m*sin(2*pi*fm*time))
SYMBOL voltage 900 650 R0
SYMATTR InstName BctrlA
SYMATTR Value V=((V(ref)>V(carr))?1:0)
SYMBOL voltage 1100 50 R0
SYMATTR InstName BctrlAn
SYMATTR Value V=((V(ref)<V(carr))?1:0)
SYMBOL voltage 1100 250 R0
SYMATTR InstName BctrlB
SYMATTR Value V=((V(refn)>V(carr))?1:0)
SYMBOL voltage 1100 450 R0
SYMATTR InstName BctrlBn
SYMATTR Value V=((V(refn)<V(carr))?1:0)
TEXT 0 -160 Left 2 ;フルブリッジ正弦波PWM・ユニポーラ変調(sec9.5, ex9.6(c)基準、bipolarとの比較用)
TEXT 0 -128 Left 2 ;E=100V(bipolarと同じ採用値) fc=5kHz(搬送波) fm=50Hz(変調波) m=0.8 負荷R=10ohm L=10mH(bipolarと同一定数)
TEXT 0 -96 Left 2 ;左レグ(S1,S2)は+v_ref、右レグ(S3,S4)は-v_refで独立制御(bipolarは対角ペアが単一指令で連動)。出力は+E,0,-Eの3値
TEXT 900 -32 Left 2 ;制御ブロック(Bcarr/Bref/Brefn/BctrlA/BctrlAn/BctrlB/BctrlBn): voltageシンボルを流用したngspice behavioral source(B-element, Value=V=式)。
TEXT 900 -8 Left 2 ;視覚上は電圧源記号だが実体は三角搬送波生成・正弦波基準(+/-)・比較器(PWMコンパレータ)というcontrol block(opamp/zenerと同じ簡略化方針)
TEXT 0 780 Left 2 !.model SW SW(Ron=10m Roff=1G Vt=0.5)
TEXT 0 804 Left 2 !.param E=100 fc=5k fm=50 m=0.8 R=10 L=10m
TEXT 0 828 Left 2 !.options reltol=0.01 gmin=1e-9
TEXT 0 852 Left 2 !.control
TEXT 0 876 Left 2 !tran 0.5u 60m 20m 2u
TEXT 0 900 Left 2 !let vab = v(a) - v(b)
TEXT 0 924 Left 2 !let sinref = sin(2*3.14159265358979*50*time)
TEXT 0 948 Left 2 !let ib = vab*sinref
TEXT 0 972 Left 2 !meas tran vmax max vab from=20m to=59.9m
TEXT 0 996 Left 2 !meas tran vmin min vab from=20m to=59.9m
TEXT 0 1020 Left 2 !meas tran vzero_check avg vab from=20m to=59.9m
TEXT 0 1044 Left 2 !meas tran irms rms i(l1) from=20m to=59.9m
TEXT 0 1068 Left 2 !meas tran ipeak max i(l1) from=20m to=59.9m
TEXT 0 1092 Left 2 !meas tran ib_1 integ ib from=20m to=39.9m
TEXT 0 1116 Left 2 !write chapter09/hbridge_pwm_unipolar.raw all
TEXT 0 1140 Left 2 !linearize vab
TEXT 0 1164 Left 2 !fft vab
TEXT 0 1188 Left 2 !.endc
