Version 4
SHEET 1 960 400
WIRE 200 0 500 0
WIRE 500 0 700 0
WIRE 700 0 800 0
WIRE 200 192 500 192
WIRE 500 192 700 192
WIRE 700 192 800 192
WIRE 700 96 700 192
WIRE 800 96 800 192
WIRE 350 48 296 48
WIRE 200 48 200 96
WIRE 350 144 500 144
WIRE 500 144 500 96
SYMBOL diode 200 96 R180
SYMATTR InstName D1
SYMATTR Value DMOD
SYMBOL diode 200 192 R180
SYMATTR InstName D3
SYMATTR Value DMOD
SYMBOL diode 500 96 R180
SYMATTR InstName D2
SYMATTR Value DMOD
SYMBOL diode 500 192 R180
SYMATTR InstName D4
SYMATTR Value DMOD
SYMBOL voltage 350 48 R0
SYMATTR InstName V1
SYMATTR Value SIN(0 141 50)
SYMBOL res 296 48 R90
SYMATTR InstName Rsrc
SYMATTR Value 5
SYMBOL cap 700 0 R0
SYMATTR InstName C1
SYMATTR Value 1000u
SYMBOL res 800 0 R0
SYMATTR InstName R1
SYMATTR Value 100
FLAG 200 192 0
FLAG 700 0 vout
TEXT 0 -120 Left 2 ;ダイオードブリッジ全波整流(sec8.2, ex8.6基準)
TEXT 0 -88 Left 2 ;交流振幅141V(実効値100V相当) 50Hz C=1000/100uF(alterでスイープ) R=100ohm
TEXT 0 -56 Left 2 ;Rsrc=5ohm(電源線抵抗相当)+.options reltol/gmin緩和(理想電圧源直結だと突入電流でNewton法が発散するため追加、収束目的の最小限)
TEXT 0 240 Left 2 !.model DMOD D(Is=1e-9 N=1.0 Rs=0.001)
TEXT 0 264 Left 2 !.options reltol=0.01 gmin=1e-9
TEXT 0 280 Left 2 !.control
TEXT 0 304 Left 2 !alter C1 = 1000u
TEXT 0 328 Left 2 !tran 10u 200m
TEXT 0 352 Left 2 !alter C1 = 100u
TEXT 0 376 Left 2 !tran 10u 200m
TEXT 0 400 Left 2 !write chapter08/bridge_rectifier.raw all
TEXT 0 424 Left 2 !.endc
